3차원 지하수 흐름 및 오염물질의 용질거동 모델링에 Visual MODFLOW가 널리 이용되고 있다.

그러나 Visual MODFLOW는 3차원 공간변수의 생성에 필요한 세부변수의 설정이 어렵고 MT3D 기반의 용질거동 모델링은 많은 연산시간을 요구한다.

이러한 단점을 보완하기 위해 다양한 지구통계기법으로 3차원 공간변수의 생성이 가능한 빠르고 정확한 유선시뮬레이션 기반의 용질거동 모델링을 개발하였다.

본 연구에서는 기존 역추적(back-

tracing) 기법의 정확성을 향상시키기 위해 주입정까지 유선을 추적하였다.

개발된 프로그램은 불규칙경계에서 다수 오염원에 대한 이류와 분산을 고려할 수 있고 시간에 따라 3차원으로 시각화할 수 있다.

Visual MODFLOW와 입출력 파일을 수정 없이 공유하므로 Visual MODFLOW의 장점을 그대로 활용할 수 있다.

15,000 개의 격자를 갖는 필드 예에서 개발된 프로그램은 기존 MT3D 기반의 용질거동 모델링보다 연산시간이 85% 이상 단축되었다.

@highlight

이 연구에서는 기존 역추적 기법의 정확성을 향상시키기 위해 주입정까지 유선을 추적했다.

@highlight

이런 단점을 보완하기 위해 다양한 지구통계기법으로 3차원 공간변수의 생성이 가능한 빠르고 정확한 유선시뮬레이션 기반의 용질거동 모델링을 개발했다.

